<?xml version="1.0" encoding="UTF-8"?>

<!-- generated on 2026-04-12T14:17:23.767775+03:00 by Eclipse SUMO netedit 1.26.0
<neteditConfiguration xmlns:xsi="http://www.w3.org/2001/XMLSchema-instance" xsi:noNamespaceSchemaLocation="http://sumo.dlr.de/xsd/neteditConfiguration.xsd">

    <input>
        <sumo-net-file value="C:\Users\yyusu\Desktop\kavaciksim\kavacik.net.xml"/>
    </input>

    <output>
        <output-file value="C:\Users\yyusu\Desktop\kavaciksim\kavacik.net.xml"/>
    </output>

    <processing>
        <geometry.min-radius.fix.railways value="false"/>
        <geometry.avoid-overlap value="false"/>
        <geometry.max-grade.fix value="false"/>
        <offset.disable-normalization value="true"/>
        <lefthand value="0"/>
    </processing>

    <junctions>
        <no-turnarounds value="true"/>
        <junctions.corner-detail value="5"/>
        <junctions.limit-turn-speed value="5.50"/>
        <rectangular-lane-cut value="0"/>
    </junctions>

    <pedestrian>
        <walkingareas value="0"/>
    </pedestrian>

</neteditConfiguration>
-->

<net version="1.20" junctionCornerDetail="5" limitTurnSpeed="5.50" avoidOverlap="0" xmlns:xsi="http://www.w3.org/2001/XMLSchema-instance" xsi:noNamespaceSchemaLocation="http://sumo.dlr.de/xsd/net_file.xsd">

    <location netOffset="-673690.65,-4550332.65" convBoundary="0.00,0.00,2904.07,2198.41" origBoundary="29.068056,41.085240,29.102674,41.105160" projParameter="+proj=utm +zone=35 +ellps=WGS84 +datum=WGS84 +units=m +no_defs"/>

    <type id="highway.busway" priority="1" numLanes="1" speed="27.78" allow="bus" oneway="1"/>
    <type id="highway.footway" priority="1" numLanes="1" speed="2.78" allow="pedestrian" oneway="1" width="2.00"/>
    <type id="highway.living_street" priority="2" numLanes="1" speed="2.78" disallow="tram rail_urban rail rail_electric rail_fast ship container cable_car subway aircraft wheelchair scooter drone" oneway="0"/>
    <type id="highway.motorway" priority="14" numLanes="2" speed="39.44" allow="private emergency authority army vip passenger hov taxi bus coach delivery truck trailer motorcycle evehicle custom1 custom2" oneway="1"/>
    <type id="highway.motorway_link" priority="9" numLanes="1" speed="22.22" allow="private emergency authority army vip passenger hov taxi bus coach delivery truck trailer motorcycle evehicle custom1 custom2" oneway="1"/>
    <type id="highway.primary" priority="12" numLanes="2" speed="27.78" disallow="tram rail_urban rail rail_electric rail_fast ship container cable_car subway aircraft wheelchair scooter drone" oneway="0"/>
    <type id="highway.primary_link" priority="7" numLanes="1" speed="22.22" disallow="tram rail_urban rail rail_electric rail_fast ship container cable_car subway aircraft wheelchair scooter drone" oneway="0"/>
    <type id="highway.residential" priority="3" numLanes="1" speed="13.89" disallow="tram rail_urban rail rail_electric rail_fast ship container cable_car subway aircraft wheelchair scooter drone" oneway="0"/>
    <type id="highway.secondary" priority="11" numLanes="1" speed="27.78" disallow="tram rail_urban rail rail_electric rail_fast ship container cable_car subway aircraft wheelchair scooter drone" oneway="0"/>
    <type id="highway.service" priority="1" numLanes="1" speed="5.56" allow="pedestrian delivery bicycle" oneway="0"/>
    <type id="highway.steps" priority="1" numLanes="1" speed="1.39" allow="pedestrian" oneway="1" width="2.00"/>
    <type id="highway.tertiary" priority="10" numLanes="1" speed="22.22" disallow="tram rail_urban rail rail_electric rail_fast ship container cable_car subway aircraft wheelchair scooter drone" oneway="0"/>
    <type id="highway.trunk" priority="13" numLanes="2" speed="27.78" disallow="pedestrian bicycle tram rail_urban rail rail_electric rail_fast ship container cable_car subway aircraft wheelchair scooter drone" oneway="0"/>
    <type id="highway.trunk_link" priority="8" numLanes="1" speed="22.22" disallow="pedestrian bicycle tram rail_urban rail rail_electric rail_fast ship container cable_car subway aircraft wheelchair scooter drone" oneway="0"/>
    <type id="highway.unclassified" priority="4" numLanes="1" speed="13.89" disallow="tram rail_urban rail rail_electric rail_fast ship container cable_car subway aircraft wheelchair scooter drone" oneway="0"/>

    <edge id=":10607801775_0" function="internal">
        <lane id=":10607801775_0_0" index="0" allow="bus bicycle" speed="27.78" length="5.64" shape="2380.45,1103.03 2378.99,1108.47"/>
    </edge>
    <edge id=":1065744358#0-AddedOffRampNode_0" function="internal">
        <lane id=":1065744358#0-AddedOffRampNode_0_0" index="0" disallow="tram rail_urban rail rail_electric rail_fast ship container cable_car subway aircraft wheelchair scooter drone" speed="27.78" length="8.27" shape="2704.50,1067.70 2702.31,1068.92 2701.18,1070.44 2700.05,1071.95 2697.85,1073.17"/>
        <lane id=":1065744358#0-AddedOffRampNode_0_1" index="1" disallow="tram rail_urban rail rail_electric rail_fast ship container cable_car subway aircraft wheelchair scooter drone" speed="27.78" length="8.27" shape="2704.50,1067.70 2696.88,1070.12"/>
        <lane id=":1065744358#0-AddedOffRampNode_0_2" index="2" disallow="tram rail_urban rail rail_electric rail_fast ship container cable_car subway aircraft wheelchair scooter drone" speed="27.78" length="8.27" shape="2703.53,1064.65 2695.91,1067.08"/>
    </edge>
    <edge id=":1084242987#0-AddedOffRampNode_0" function="internal">
        <lane id=":1084242987#0-AddedOffRampNode_0_0" index="0" disallow="pedestrian bicycle tram rail_urban rail rail_electric rail_fast ship container cable_car subway aircraft wheelchair scooter drone" speed="27.78" length="8.27" shape="2151.59,552.34 2153.50,553.96 2155.32,554.49 2157.14,555.01 2159.06,556.63"/>
        <lane id=":1084242987#0-AddedOffRampNode_0_1" index="1" disallow="pedestrian bicycle tram rail_urban rail rail_electric rail_fast ship container cable_car subway aircraft wheelchair scooter drone" speed="27.78" length="8.27" shape="2151.59,552.34 2156.55,558.62"/>
        <lane id=":1084242987#0-AddedOffRampNode_0_2" index="2" disallow="pedestrian bicycle tram rail_urban rail rail_electric rail_fast ship container cable_car subway aircraft wheelchair scooter drone" speed="27.78" length="8.27" shape="2149.08,554.33 2154.04,560.60"/>
    </edge>
    <edge id=":11133952753_0" function="internal">
        <lane id=":11133952753_0_0" index="0" allow="pedestrian delivery bicycle" speed="3.65" length="4.67" shape="2517.52,957.19 2516.47,956.21 2516.20,955.35 2516.72,954.63 2518.04,954.03"/>
    </edge>
    <edge id=":11387794049_0" function="internal">
        <lane id=":11387794049_0_0" index="0" disallow="tram rail_urban rail rail_electric rail_fast ship container cable_car subway aircraft wheelchair scooter drone" speed="13.89" length="5.48" shape="2240.29,781.55 2238.25,776.47"/>
    </edge>
    <edge id=":11387794049_1" function="internal">
        <lane id=":11387794049_1_0" index="0" disallow="tram rail_urban rail rail_electric rail_fast ship container cable_car subway aircraft wheelchair scooter drone" speed="13.89" length="5.47" shape="2241.22,775.27 2243.26,780.35"/>
    </edge>
    <edge id=":12299660115_0" function="internal">
        <lane id=":12299660115_0_0" index="0" allow="pedestrian delivery bicycle" speed="3.65" length="4.67" shape="2004.23,1009.19 2003.48,1010.42 2002.70,1010.86 2001.88,1010.49 2001.03,1009.33"/>
    </edge>
    <edge id=":12299660122_0" function="internal">
        <lane id=":12299660122_0_0" index="0" allow="pedestrian delivery bicycle" speed="3.65" length="4.67" shape="2261.61,854.24 2261.96,852.84 2262.58,852.19 2263.47,852.30 2264.63,853.16"/>
    </edge>
    <edge id=":13375592182_0" function="internal">
        <lane id=":13375592182_0_0" index="0" disallow="tram rail_urban rail rail_electric rail_fast ship container cable_car subway aircraft wheelchair scooter drone" speed="7.19" length="9.89" shape="2148.92,908.38 2147.69,905.79 2146.06,904.07 2144.03,903.22 2141.58,903.24"/>
    </edge>
    <edge id=":13375592182_1" function="internal">
        <lane id=":13375592182_1_0" index="0" disallow="tram rail_urban rail rail_electric rail_fast ship container cable_car subway aircraft wheelchair scooter drone" speed="7.75" length="14.83" shape="2148.92,908.38 2148.16,904.29 2148.98,901.14 2151.36,898.93 2155.32,897.65"/>
    </edge>
    <edge id=":13375592182_2" function="internal">
        <lane id=":13375592182_2_0" index="0" disallow="tram rail_urban rail rail_electric rail_fast ship container cable_car subway aircraft wheelchair scooter drone" speed="3.65" length="4.67" shape="2148.92,908.38 2149.29,906.99 2149.92,906.36 2150.81,906.48 2151.95,907.36"/>
    </edge>
    <edge id=":13375592182_3" function="internal">
        <lane id=":13375592182_3_0" index="0" disallow="tram rail_urban rail rail_electric rail_fast ship container cable_car subway aircraft wheelchair scooter drone" speed="6.19" length="9.05" shape="2155.86,900.81 2153.44,901.59 2151.99,902.94 2151.49,904.86 2151.95,907.36"/>
    </edge>
    <edge id=":13375592182_4" function="internal">
        <lane id=":13375592182_4_0" index="0" disallow="tram rail_urban rail rail_electric rail_fast ship container cable_car subway aircraft wheelchair scooter drone" speed="13.89" length="14.48" shape="2155.86,900.81 2141.58,903.24"/>
    </edge>
    <edge id=":13375592182_5" function="internal">
        <lane id=":13375592182_5_0" index="0" disallow="tram rail_urban rail rail_electric rail_fast ship container cable_car subway aircraft wheelchair scooter drone" speed="3.65" length="1.44" shape="2155.86,900.81 2154.54,900.22"/>
    </edge>
    <edge id=":13375592182_9" function="internal">
        <lane id=":13375592182_9_0" index="0" disallow="tram rail_urban rail rail_electric rail_fast ship container cable_car subway aircraft wheelchair scooter drone" speed="3.65" length="3.23" shape="2154.54,900.22 2154.01,899.50 2154.27,898.64 2155.32,897.65"/>
    </edge>
    <edge id=":13375592182_6" function="internal">
        <lane id=":13375592182_6_0" index="0" disallow="tram rail_urban rail rail_electric rail_fast ship container cable_car subway aircraft wheelchair scooter drone" speed="13.89" length="14.48" shape="2141.05,900.08 2155.32,897.65"/>
    </edge>
    <edge id=":13375592182_7" function="internal">
        <lane id=":13375592182_7_0" index="0" disallow="tram rail_urban rail rail_electric rail_fast ship container cable_car subway aircraft wheelchair scooter drone" speed="8.58" length="3.84" shape="2141.05,900.08 2144.72,900.03 2144.87,900.09"/>
    </edge>
    <edge id=":13375592182_8" function="internal">
        <lane id=":13375592182_8_0" index="0" disallow="tram rail_urban rail rail_electric rail_fast ship container cable_car subway aircraft wheelchair scooter drone" speed="3.65" length="1.44" shape="2141.05,900.08 2142.36,900.67"/>
    </edge>
    <edge id=":13375592182_10" function="internal">
        <lane id=":13375592182_10_0" index="0" disallow="tram rail_urban rail rail_electric rail_fast ship container cable_car subway aircraft wheelchair scooter drone" speed="8.58" length="10.64" shape="2144.87,900.09 2147.76,901.22 2150.17,903.66 2151.95,907.36"/>
    </edge>
    <edge id=":13375592182_11" function="internal">
        <lane id=":13375592182_11_0" index="0" disallow="tram rail_urban rail rail_electric rail_fast ship container cable_car subway aircraft wheelchair scooter drone" speed="3.65" length="3.23" shape="2142.36,900.67 2142.89,901.39 2142.63,902.25 2141.58,903.24"/>
    </edge>
    <edge id=":1485679741_0" function="internal">
        <lane id=":1485679741_0_0" index="0" disallow="tram rail_urban rail rail_electric rail_fast ship container cable_car subway aircraft wheelchair scooter drone" speed="12.26" length="14.70" shape="2425.88,697.96 2425.13,693.10 2424.06,689.23 2422.67,686.34 2420.96,684.44"/>
    </edge>
    <edge id=":1485679741_1" function="internal">
        <lane id=":1485679741_1_0" index="0" disallow="tram rail_urban rail rail_electric rail_fast ship container cable_car subway aircraft wheelchair scooter drone" speed="7.41" length="18.98" shape="2425.88,697.96 2425.91,691.93 2427.66,688.94 2431.12,688.98 2436.31,692.06"/>
    </edge>
    <edge id=":1485679741_2" function="internal">
        <lane id=":1485679741_2_0" index="0" disallow="tram rail_urban rail rail_electric rail_fast ship container cable_car subway aircraft wheelchair scooter drone" speed="3.65" length="4.67" shape="2425.88,697.96 2426.55,696.68 2427.30,696.19 2428.14,696.50 2429.06,697.61"/>
    </edge>
    <edge id=":1485679741_3" function="internal">
        <lane id=":1485679741_3_0" index="0" disallow="tram rail_urban rail rail_electric rail_fast ship container cable_car subway aircraft wheelchair scooter drone" speed="5.49" length="9.66" shape="2434.37,694.60 2431.73,693.04 2429.97,693.02 2429.08,694.54 2429.06,697.61"/>
    </edge>
    <edge id=":1485679741_4" function="internal">
        <lane id=":1485679741_4_0" index="0" disallow="tram rail_urban rail rail_electric rail_fast ship container cable_car subway aircraft wheelchair scooter drone" speed="22.22" length="16.83" shape="2434.37,694.60 2420.96,684.44"/>
    </edge>
    <edge id=":1485679741_5" function="internal">
        <lane id=":1485679741_5_0" index="0" disallow="tram rail_urban rail rail_electric rail_fast ship container cable_car subway aircraft wheelchair scooter drone" speed="3.65" length="1.44" shape="2434.37,694.60 2433.90,693.24"/>
    </edge>
    <edge id=":1485679741_9" function="internal">
        <lane id=":1485679741_9_0" index="0" disallow="tram rail_urban rail rail_electric rail_fast ship container cable_car subway aircraft wheelchair scooter drone" speed="3.65" length="3.23" shape="2433.90,693.24 2434.06,692.36 2434.87,691.97 2436.31,692.06"/>
    </edge>
    <edge id=":1485679741_6" function="internal">
        <lane id=":1485679741_6_0" index="0" disallow="tram rail_urban rail rail_electric rail_fast ship container cable_car subway aircraft wheelchair scooter drone" speed="22.22" length="16.84" shape="2422.88,681.88 2436.31,692.06"/>
    </edge>
    <edge id=":1485679741_7" function="internal">
        <lane id=":1485679741_7_0" index="0" disallow="tram rail_urban rail rail_electric rail_fast ship container cable_car subway aircraft wheelchair scooter drone" speed="13.27" length="3.55" shape="2422.88,681.88 2425.09,684.24 2425.24,684.52"/>
    </edge>
    <edge id=":1485679741_8" function="internal">
        <lane id=":1485679741_8_0" index="0" disallow="tram rail_urban rail rail_electric rail_fast ship container cable_car subway aircraft wheelchair scooter drone" speed="3.65" length="1.44" shape="2422.88,681.88 2423.36,683.25"/>
    </edge>
    <edge id=":1485679741_10" function="internal">
        <lane id=":1485679741_10_0" index="0" disallow="tram rail_urban rail rail_electric rail_fast ship container cable_car subway aircraft wheelchair scooter drone" speed="13.27" length="13.75" shape="2425.24,684.52 2426.85,687.64 2428.18,692.10 2429.06,697.61"/>
    </edge>
    <edge id=":1485679741_11" function="internal">
        <lane id=":1485679741_11_0" index="0" disallow="tram rail_urban rail rail_electric rail_fast ship container cable_car subway aircraft wheelchair scooter drone" speed="3.65" length="3.23" shape="2423.36,683.25 2423.20,684.12 2422.40,684.52 2420.96,684.44"/>
    </edge>
    <edge id=":1485679743_0" function="internal">
        <lane id=":1485679743_0_0" index="0" disallow="pedestrian bicycle tram rail_urban rail rail_electric rail_fast ship container cable_car subway aircraft wheelchair scooter drone" speed="22.22" length="0.66" shape="2280.74,683.88 2280.10,684.04"/>
    </edge>
    <edge id=":1485679743_1" function="internal">
        <lane id=":1485679743_1_0" index="0" disallow="pedestrian bicycle tram rail_urban rail rail_electric rail_fast ship container cable_car subway aircraft wheelchair scooter drone" speed="22.22" length="0.50" shape="2279.36,680.98 2279.83,680.82"/>
    </edge>
    <edge id=":1485679763_0" function="internal">
        <lane id=":1485679763_0_0" index="0" disallow="tram rail_urban rail rail_electric rail_fast ship container cable_car subway aircraft wheelchair scooter drone" speed="13.89" length="15.02" shape="2338.05,763.48 2333.42,749.20"/>
    </edge>
    <edge id=":1485679763_1" function="internal">
        <lane id=":1485679763_1_0" index="0" disallow="tram rail_urban rail rail_electric rail_fast ship container cable_car subway aircraft wheelchair scooter drone" speed="7.44" length="4.67" shape="2338.05,763.48 2337.27,758.88"/>
    </edge>
    <edge id=":1485679763_2" function="internal">
        <lane id=":1485679763_2_0" index="0" disallow="tram rail_urban rail rail_electric rail_fast ship container cable_car subway aircraft wheelchair scooter drone" speed="3.65" length="1.44" shape="2338.05,763.48 2338.45,762.09"/>
    </edge>
    <edge id=":1485679763_9" function="internal">
        <lane id=":1485679763_9_0" index="0" disallow="tram rail_urban rail rail_electric rail_fast ship container cable_car subway aircraft wheelchair scooter drone" speed="7.44" length="11.65" shape="2337.27,758.88 2337.24,758.72 2338.31,755.57 2341.26,754.01 2346.08,754.05"/>
    </edge>
    <edge id=":1485679763_10" function="internal">
        <lane id=":1485679763_10_0" index="0" disallow="tram rail_urban rail rail_electric rail_fast ship container cable_car subway aircraft wheelchair scooter drone" speed="3.65" length="3.23" shape="2338.45,762.09 2339.10,761.47 2339.98,761.62 2341.10,762.52"/>
    </edge>
    <edge id=":1485679763_3" function="internal">
        <lane id=":1485679763_3_0" index="0" disallow="tram rail_urban rail rail_electric rail_fast ship container cable_car subway aircraft wheelchair scooter drone" speed="5.75" length="9.17" shape="2345.62,757.22 2342.91,757.20 2341.25,758.07 2340.65,759.85 2341.10,762.52"/>
    </edge>
    <edge id=":1485679763_4" function="internal">
        <lane id=":1485679763_4_0" index="0" disallow="tram rail_urban rail rail_electric rail_fast ship container cable_car subway aircraft wheelchair scooter drone" speed="10.28" length="15.37" shape="2345.62,757.22 2341.12,756.17 2337.58,754.49 2335.02,752.16 2333.42,749.20"/>
    </edge>
    <edge id=":1485679763_5" function="internal">
        <lane id=":1485679763_5_0" index="0" disallow="tram rail_urban rail rail_electric rail_fast ship container cable_car subway aircraft wheelchair scooter drone" speed="3.65" length="4.67" shape="2345.62,757.22 2344.55,756.26 2344.27,755.41 2344.78,754.67 2346.08,754.05"/>
    </edge>
    <edge id=":1485679763_6" function="internal">
        <lane id=":1485679763_6_0" index="0" disallow="tram rail_urban rail rail_electric rail_fast ship container cable_car subway aircraft wheelchair scooter drone" speed="9.08" length="11.86" shape="2336.45,748.17 2337.65,750.30 2339.66,751.99 2342.47,753.25 2346.08,754.05"/>
    </edge>
    <edge id=":1485679763_7" function="internal">
        <lane id=":1485679763_7_0" index="0" disallow="tram rail_urban rail rail_electric rail_fast ship container cable_car subway aircraft wheelchair scooter drone" speed="13.89" length="15.09" shape="2336.45,748.17 2341.10,762.52"/>
    </edge>
    <edge id=":1485679763_8" function="internal">
        <lane id=":1485679763_8_0" index="0" disallow="tram rail_urban rail rail_electric rail_fast ship container cable_car subway aircraft wheelchair scooter drone" speed="3.65" length="1.44" shape="2336.45,748.17 2336.07,749.56"/>
    </edge>
    <edge id=":1485679763_11" function="internal">
        <lane id=":1485679763_11_0" index="0" disallow="tram rail_urban rail rail_electric rail_fast ship container cable_car subway aircraft wheelchair scooter drone" speed="3.65" length="3.23" shape="2336.07,749.56 2335.45,750.20 2334.56,750.08 2333.42,749.20"/>
    </edge>
    <edge id=":1485679771_0" function="internal">
        <lane id=":1485679771_0_0" index="0" disallow="tram rail_urban rail rail_electric rail_fast ship container cable_car subway aircraft wheelchair scooter drone" speed="8.04" length="10.66" shape="2434.90,775.19 2434.05,772.92 2432.44,771.16 2430.10,769.89 2427.00,769.13"/>
    </edge>
    <edge id=":1485679771_1" function="internal">
        <lane id=":1485679771_1_0" index="0" disallow="tram rail_urban rail rail_electric rail_fast ship container cable_car subway aircraft wheelchair scooter drone" speed="13.89" length="14.53" shape="2434.90,775.19 2432.81,760.81"/>
    </edge>
    <edge id=":1485679771_2" function="internal">
        <lane id=":1485679771_2_0" index="0" disallow="tram rail_urban rail rail_electric rail_fast ship container cable_car subway aircraft wheelchair scooter drone" speed="3.65" length="1.44" shape="2434.90,775.19 2435.46,773.86"/>
    </edge>
    <edge id=":1485679771_9" function="internal">
        <lane id=":1485679771_9_0" index="0" disallow="tram rail_urban rail rail_electric rail_fast ship container cable_car subway aircraft wheelchair scooter drone" speed="3.65" length="3.23" shape="2435.46,773.86 2436.17,773.32 2437.03,773.56 2438.05,774.59"/>
    </edge>
    <edge id=":1485679771_3" function="internal">
        <lane id=":1485679771_3_0" index="0" disallow="tram rail_urban rail rail_electric rail_fast ship container cable_car subway aircraft wheelchair scooter drone" speed="13.89" length="14.28" shape="2435.99,760.46 2438.05,774.59"/>
    </edge>
    <edge id=":1485679771_4" function="internal">
        <lane id=":1485679771_4_0" index="0" disallow="tram rail_urban rail rail_electric rail_fast ship container cable_car subway aircraft wheelchair scooter drone" speed="7.62" length="4.04" shape="2435.99,760.46 2435.86,764.50"/>
    </edge>
    <edge id=":1485679771_5" function="internal">
        <lane id=":1485679771_5_0" index="0" disallow="tram rail_urban rail rail_electric rail_fast ship container cable_car subway aircraft wheelchair scooter drone" speed="3.65" length="1.44" shape="2435.99,760.46 2435.33,761.74"/>
    </edge>
    <edge id=":1485679771_10" function="internal">
        <lane id=":1485679771_10_0" index="0" disallow="tram rail_urban rail rail_electric rail_fast ship container cable_car subway aircraft wheelchair scooter drone" speed="7.62" length="11.23" shape="2435.86,764.50 2435.85,764.81 2434.30,767.71 2431.35,769.15 2427.00,769.13"/>
    </edge>
    <edge id=":1485679771_11" function="internal">
        <lane id=":1485679771_11_0" index="0" disallow="tram rail_urban rail rail_electric rail_fast ship container cable_car subway aircraft wheelchair scooter drone" speed="3.65" length="3.23" shape="2435.33,761.74 2434.57,762.23 2433.73,761.92 2432.81,760.81"/>
    </edge>
    <edge id=":1485679771_6" function="internal">
        <lane id=":1485679771_6_0" index="0" disallow="tram rail_urban rail rail_electric rail_fast ship container cable_car subway aircraft wheelchair scooter drone" speed="6.03" length="9.07" shape="2427.47,765.97 2430.05,765.98 2431.81,765.12 2432.72,763.40 2432.81,760.81"/>
    </edge>
    <edge id=":1485679771_7" function="internal">
        <lane id=":1485679771_7_0" index="0" disallow="tram rail_urban rail rail_electric rail_fast ship container cable_car subway aircraft wheelchair scooter drone" speed="9.33" length="14.64" shape="2427.47,765.97 2431.57,767.01 2434.70,768.79 2436.86,771.32 2438.05,774.59"/>
    </edge>
    <edge id=":1485679771_8" function="internal">
        <lane id=":1485679771_8_0" index="0" disallow="tram rail_urban rail rail_electric rail_fast ship container cable_car subway aircraft wheelchair scooter drone" speed="3.65" length="4.67" shape="2427.47,765.97 2428.54,766.93 2428.82,767.78 2428.31,768.52 2427.00,769.13"/>
    </edge>
    <edge id=":1485679797_0" function="internal">
        <lane id=":1485679797_0_0" index="0" disallow="tram rail_urban rail rail_electric rail_fast ship container cable_car subway aircraft wheelchair scooter drone" speed="3.65" length="4.67" shape="2484.86,800.74 2485.59,799.49 2486.36,799.04 2487.18,799.39 2488.06,800.54"/>
    </edge>
    <edge id=":1485679832_0" function="internal">
        <lane id=":1485679832_0_0" index="0" disallow="tram rail_urban rail rail_electric rail_fast ship container cable_car subway aircraft wheelchair scooter drone" speed="13.89" length="15.47" shape="2362.89,843.93 2358.65,829.05"/>
    </edge>
    <edge id=":1485679832_1" function="internal">
        <lane id=":1485679832_1_0" index="0" disallow="tram rail_urban rail rail_electric rail_fast ship container cable_car subway aircraft wheelchair scooter drone" speed="7.39" length="4.92" shape="2362.89,843.93 2362.24,839.05"/>
    </edge>
    <edge id=":1485679832_2" function="internal">
        <lane id=":1485679832_2_0" index="0" disallow="tram rail_urban rail rail_electric rail_fast ship container cable_car subway aircraft wheelchair scooter drone" speed="3.65" length="1.44" shape="2362.89,843.93 2363.35,842.56"/>
    </edge>
    <edge id=":1485679832_9" function="internal">
        <lane id=":1485679832_9_0" index="0" disallow="tram rail_urban rail rail_electric rail_fast ship container cable_car subway aircraft wheelchair scooter drone" speed="7.39" length="12.27" shape="2362.24,839.05 2362.20,838.75 2363.45,835.62 2366.64,834.53 2371.77,835.49"/>
    </edge>
    <edge id=":1485679832_10" function="internal">
        <lane id=":1485679832_10_0" index="0" disallow="tram rail_urban rail rail_electric rail_fast ship container cable_car subway aircraft wheelchair scooter drone" speed="3.65" length="3.23" shape="2363.35,842.56 2364.02,841.97 2364.89,842.15 2365.98,843.10"/>
    </edge>
    <edge id=":1485679832_3" function="internal">
        <lane id=":1485679832_3_0" index="0" disallow="tram rail_urban rail rail_electric rail_fast ship container cable_car subway aircraft wheelchair scooter drone" speed="5.62" length="9.30" shape="2370.79,838.53 2368.01,838.01 2366.28,838.60 2365.60,840.30 2365.98,843.10"/>
    </edge>
    <edge id=":1485679832_4" function="internal">
        <lane id=":1485679832_4_0" index="0" disallow="tram rail_urban rail rail_electric rail_fast ship container cable_car subway aircraft wheelchair scooter drone" speed="11.46" length="15.96" shape="2370.79,838.53 2366.20,836.70 2362.65,834.51 2360.14,831.96 2358.65,829.05"/>
    </edge>
    <edge id=":1485679832_5" function="internal">
        <lane id=":1485679832_5_0" index="0" disallow="tram rail_urban rail rail_electric rail_fast ship container cable_car subway aircraft wheelchair scooter drone" speed="3.65" length="4.67" shape="2370.79,838.53 2369.89,837.40 2369.76,836.52 2370.38,835.88 2371.77,835.49"/>
    </edge>
    <edge id=":1485679832_6" function="internal">
        <lane id=":1485679832_6_0" index="0" disallow="tram rail_urban rail rail_electric rail_fast ship container cable_car subway aircraft wheelchair scooter drone" speed="10.35" length="12.92" shape="2361.70,828.09 2362.87,830.28 2364.94,832.24 2367.91,833.98 2371.77,835.49"/>
    </edge>
    <edge id=":1485679832_7" function="internal">
        <lane id=":1485679832_7_0" index="0" disallow="tram rail_urban rail rail_electric rail_fast ship container cable_car subway aircraft wheelchair scooter drone" speed="13.89" length="15.61" shape="2361.70,828.09 2365.98,843.10"/>
    </edge>
    <edge id=":1485679832_8" function="internal">
        <lane id=":1485679832_8_0" index="0" disallow="tram rail_urban rail rail_electric rail_fast ship container cable_car subway aircraft wheelchair scooter drone" speed="3.65" length="1.44" shape="2361.70,828.09 2361.30,829.47"/>
    </edge>
    <edge id=":1485679832_11" function="internal">
        <lane id=":1485679832_11_0" index="0" disallow="tram rail_urban rail rail_electric rail_fast ship container cable_car subway aircraft wheelchair scooter drone" speed="3.65" length="3.23" shape="2361.30,829.47 2360.66,830.09 2359.77,829.95 2358.65,829.05"/>
    </edge>
    <edge id=":1485679839_0" function="internal">
        <lane id=":1485679839_0_0" index="0" disallow="tram rail_urban rail rail_electric rail_fast ship container cable_car subway aircraft wheelchair scooter drone" speed="7.76" length="10.97" shape="2415.99,854.27 2413.64,853.57 2411.26,853.89 2408.87,855.22 2406.45,857.58"/>
    </edge>
    <edge id=":1485679839_1" function="internal">
        <lane id=":1485679839_1_0" index="0" disallow="tram rail_urban rail rail_electric rail_fast ship container cable_car subway aircraft wheelchair scooter drone" speed="13.89" length="15.03" shape="2415.99,854.27 2412.61,852.64 2409.15,851.19 2405.62,849.87 2402.07,848.67"/>
    </edge>
    <edge id=":1485679839_2" function="internal">
        <lane id=":1485679839_2_0" index="0" disallow="tram rail_urban rail rail_electric rail_fast ship container cable_car subway aircraft wheelchair scooter drone" speed="3.65" length="1.44" shape="2415.99,854.27 2415.29,853.01"/>
    </edge>
    <edge id=":1485679839_9" function="internal">
        <lane id=":1485679839_9_0" index="0" disallow="tram rail_urban rail rail_electric rail_fast ship container cable_car subway aircraft wheelchair scooter drone" speed="3.65" length="3.23" shape="2415.29,853.01 2415.30,852.11 2416.03,851.59 2417.46,851.43"/>
    </edge>
    <edge id=":1485679839_3" function="internal">
        <lane id=":1485679839_3_0" index="0" disallow="tram rail_urban rail rail_electric rail_fast ship container cable_car subway aircraft wheelchair scooter drone" speed="13.89" length="15.55" shape="2403.05,845.62 2406.69,846.86 2410.37,848.24 2414.00,849.77 2417.46,851.43"/>
    </edge>
    <edge id=":1485679839_4" function="internal">