<routes>
  <vType id="taksi_tipi" vClass="taxi" personCapacity="4" color="red">
    <param key="has.taxi.device" value="true"/>
    <param key="device.taxi.dispatch-algorithm" value="greedy"/>
    </vType>


    <vehicle id="t1" type="taksi_tipi" depart="0" line="taxi"> <route edges="1426472478"/> </vehicle>
    <vehicle id="t2" type="taksi_tipi" depart="0" line="taxi"> <route edges="495040852#4"/> </vehicle>
    <vehicle id="t3" type="taksi_tipi" depart="0" line="taxi"> <route edges="-456212953#0"/> </vehicle>
    <vehicle id="t4" type="taksi_tipi" depart="0" line="taxi"> <route edges="1426472478"/> </vehicle>
    <vehicle id="t5" type="taksi_tipi" depart="0" line="taxi"> <route edges="495040852#4"/> </vehicle>
    <vehicle id="t6" type="taksi_tipi" depart="0" line="taxi"> <route edges="-456212953#0"/> </vehicle>
    <vehicle id="t7" type="taksi_tipi" depart="0" line="taxi"> <route edges="1426472478"/> </vehicle>
    <vehicle id="t8" type="taksi_tipi" depart="0" line="taxi"> <route edges="495040852#4"/> </vehicle>
    <vehicle id="t9" type="taksi_tipi" depart="0" line="taxi"> <route edges="-456212953#0"/> </vehicle>
    <vehicle id="t10" type="taksi_tipi" depart="0" line="taxi"> <route edges="1426472478"/> </vehicle>



   
    <personFlow id="sabah_K1_Y1" begin="0" end="1500" probability="0.015" departPos="random"><ride from="230341984#1" to="216916702#2" lines="taxi"/></personFlow>
    <personFlow id="sabah_K2_Y2" begin="0" end="1500" probability="0.015" departPos="random"><ride from="135266370#1" to="1065744358#2" lines="taxi"/></personFlow>
    <personFlow id="sabah_K3_Y3" begin="0" end="1500" probability="0.01" departPos="random"><ride from="230344915#6" to="216911449" lines="taxi"/></personFlow>
    <personFlow id="sabah_K1_Y4" begin="0" end="1500" probability="0.01" departPos="random"><ride from="230341984#1" to="-135266357" lines="taxi"/></personFlow>

    <personFlow id="sabah_K2_M1" begin="200" end="1500" probability="0.005" departPos="random"><ride from="135266370#1" to="-230342216#0" lines="taxi"/></personFlow>
    <personFlow id="sabah_K3_M2" begin="300" end="1500" probability="0.005" departPos="random"><ride from="230344915#6" to="216916689" lines="taxi"/></personFlow>

    <personFlow id="sabah_K1_Has" begin="0" end="1500" probability="0.003" departPos="random"><ride from="230341984#1" to="230341980" lines="taxi"/></personFlow>
    <personFlow id="sabah_Y1_Has" begin="500" end="1500" probability="0.001" departPos="random"><ride from="216916702#2" to="230341980" lines="taxi"/></personFlow>

    <personFlow id="sabah_M1_Y2" begin="500" end="1500" probability="0.002" departPos="random"><ride from="-230342216#0" to="1065744358#2" lines="taxi"/></personFlow> 
    <personFlow id="sabah_Has_K2" begin="1000" end="1500" probability="0.002" departPos="random"><ride from="230341980" to="135266370#1" lines="taxi"/></personFlow> 
    <personFlow id="ogle_K1_Dug" begin="1500" end="2000" probability="0.015" departPos="random"><ride from="230341984#1" to="1426472478" lines="taxi"/></personFlow>

    <personFlow id="ogle_K2_Dug" begin="1500" end="2000" probability="0.01" departPos="random"><ride from="135266370#1" to="1426472478" lines="taxi"/></personFlow>
    <personFlow id="ogle_M3_Dug" begin="1600" end="2100" probability="0.008" departPos="random"><ride from="-216915585#0" to="1426472478" lines="taxi"/></personFlow>
    <personFlow id="ogle_Y2_Dug" begin="1700" end="2000" probability="0.005" departPos="random"><ride from="1065744358#2" to="1426472478" lines="taxi"/></personFlow> 
    <personFlow id="ogle_Y1_M1" begin="1600" end="2000" probability="0.02" departPos="random"><ride from="216916702#2" to="-230342216#0" lines="taxi"/></personFlow>
    <personFlow id="ogle_Y3_M2" begin="1600" end="2000" probability="0.015" departPos="random"><ride from="216911449" to="216916689" lines="taxi"/></personFlow>
    <personFlow id="ogle_M1_Y1" begin="1900" end="2300" probability="0.015" departPos="random"><ride from="-230342216#0" to="216916702#2" lines="taxi"/></personFlow> 
    <personFlow id="ogle_Dug_Has" begin="1800" end="2500" probability="0.001" departPos="random"><ride from="1426472478" to="230341980" lines="taxi"/></personFlow> 
    <personFlow id="ogle_Has_M3" begin="1500" end="2500" probability="0.002" departPos="random"><ride from="230341980" to="-216915585#0" lines="taxi"/></personFlow>


    <personFlow id="aksam_Y1_K1" begin="2500" end="3500" probability="0.03" departPos="random"><ride from="216916702#2" to="230341984#1" lines="taxi"/></personFlow>
    <personFlow id="aksam_Y2_K2" begin="2500" end="3500" probability="0.02" departPos="random"><ride from="1065744358#2" to="135266370#1" lines="taxi"/></personFlow>
    <personFlow id="aksam_Y3_K3" begin="2600" end="3600" probability="0.025" departPos="random"><ride from="216911449" to="230344915#6" lines="taxi"/></personFlow>
    <personFlow id="aksam_Y4_K1" begin="2600" end="3600" probability="0.02" departPos="random"><ride from="-135266357" to="230341984#1" lines="taxi"/></personFlow>

    <personFlow id="aksam_Y1_M3" begin="2600" end="3400" probability="0.015" departPos="random"><ride from="216916702#2" to="-216915585#0" lines="taxi"/></personFlow>
    <personFlow id="aksam_Y4_M2" begin="2700" end="3500" probability="0.01" departPos="random"><ride from="-135266357" to="216916689" lines="taxi"/></personFlow>

    <personFlow id="aksam_Dug_K2" begin="2500" end="3200" probability="0.015" departPos="random"><ride from="1426472478" to="135266370#1" lines="taxi"/></personFlow>
    <personFlow id="aksam_Dug_M1" begin="2500" end="3200" probability="0.005" departPos="random"><ride from="1426472478" to="-230342216#0" lines="taxi"/></personFlow>

    <personFlow id="aksam_K3_Has" begin="2500" end="4000" probability="0.002" departPos="random"><ride from="230344915#6" to="230341980" lines="taxi"/></personFlow>
    <personFlow id="aksam_M1_Y3" begin="3000" end="4000" probability="0.001" departPos="random"><ride from="-230342216#0" to="216911449" lines="taxi"/></personFlow> 
    <personFlow id="gece_M1_K1" begin="4000" end="5000" probability="0.015" departPos="random"><ride from="-230342216#0" to="230341984#1" lines="taxi"/></personFlow>
    <personFlow id="gece_M2_K3" begin="4000" end="5000" probability="0.01" departPos="random"><ride from="216916689" to="230344915#6" lines="taxi"/></personFlow>
    <personFlow id="gece_M3_K2" begin="4200" end="5000" probability="0.01" departPos="random"><ride from="-216915585#0" to="135266370#1" lines="taxi"/></personFlow>

    <personFlow id="gece_K1_Y4" begin="4500" end="5000" probability="0.002" departPos="random"><ride from="230341984#1" to="-135266357" lines="taxi"/></personFlow> 
    <personFlow id="gece_Has_K1" begin="4000" end="5000" probability="0.003" departPos="random"><ride from="230341980" to="230341984#1" lines="taxi"/></personFlow>
    <personFlow id="gece_M2_Has" begin="4000" end="5000" probability="0.001" departPos="random"><ride from="216916689" to="230341980" lines="taxi"/></personFlow>
    <personFlow id="gece_Dug_K3" begin="4000" end="4500" probability="0.001" departPos="random"><ride from="1426472478" to="230344915#6" lines="taxi"/></personFlow> 
</routes>